# MODFLOW2000 River Package
PARAMETER  0  0
       138        50
       138         0                      Stress Period 1
         1         6        16 992.99835 1000.5891  991.9984         1
         1         6        17 992.93182 1024.7813  991.9318         1
         1         7        17 992.81256 1068.1543  991.8126         1
         1         7        18 992.66620 1121.3849  991.6662         1
         1         8        18 992.54694 1164.7579  991.5469         1
         1         8        19 992.42126 1210.4442  991.4213         1
         1         9        19 992.27832 1262.4280  991.2783         1
         1         9        20 992.15851 1305.9867  991.1585         1
         1        10        20 992.01306 1358.8794  991.0131         1
         1        10        21 991.89331 1402.4381  990.8933         1
         1        11        21 991.73096 1461.4733  990.7310         1
         1        11        22 991.62543 1499.8518  990.6254         1
         1        12        22 991.50494 1543.6552  990.5049         1
         1        13        22 991.31525 1612.6311  990.3152         1
         1        13        23 991.21191 1650.2241  990.2119         1
         1        14        23 991.09143 1694.0276  990.0914         1
         1        15        23 990.90991 1760.0330  989.9099         1
         1        15        24 990.79974 1800.1005  989.7997         1
         1        16        24 990.67529 1845.3538  989.6753         1
         1        17        24 990.49670 1910.2920  989.4967         1
         1        17        25 990.39221 1948.2891  989.3922         1
         1        18        25 990.23535 2005.3369  989.2354         1
         1        19        25 990.11377 2049.5281  989.1138         1
         1        19        26 989.99280 2093.5364  988.9928         1
         1        19        27 989.84454 2147.4480  988.8445         1
         1        20        27 989.72864 2189.5906  988.7286         1
         1        20        28 989.57526 2245.3677  988.5753         1
         1        21        28 989.45935 2287.5105  988.4594         1
         1        21        29 989.31757 2339.0627  988.3176         1
         1        22        29 989.17725 2390.0935  988.1772         1
         1        22        30 989.06610 2430.5049  988.0661         1
         1        23        30 988.89941 2491.1218  987.8994         1
         1        23        31 988.78827 2531.5332  987.7883         1
         1        24        31 988.67365 2573.2131  987.6736         1
         1        25        31 988.51044 2632.5618  987.5104         1
         1        25        32 988.39142 2675.8394  987.3914         1
         1        26        32 988.23615 2732.3203  987.2361         1
         1        27        32 988.10992 2778.1985  987.1099         1
         1        27        33 988.00415 2816.6633  987.0042         1
         1        28        33 987.81378 2885.8999  986.8138         1
         1        28        34 987.70801 2924.3647  986.7080         1
         1        29        34 987.57574 2972.4468  986.5757         1
         1        30        34 987.44226 3021.0020  986.4423         1
         1        30        35 987.30121 3072.2830  986.3012         1
         1        31        35 987.17877 3116.8164  986.1788         1
         1        31        36 987.03772 3168.0974  986.0377         1
         1        32        36 986.91528 3212.6309  985.9153         1
         1        32        37 986.77014 3265.4001  985.7701         1
         1        32        38 986.64252 3311.8110  985.6425         1
         1        33        38 986.53510 3350.8669  985.5351         1
         1        33        39 986.34729 3419.1763  985.3473         1
         1        34        39 986.21881 3465.8970  985.2188         1
         1        34        40 986.11920 3502.1113  985.1192         1
         1        35        40 985.97534 3554.4255  984.9753         1
         1        36        40 985.77942 3625.6750  984.7794         1
         1        37        40 985.65979 3669.1699  984.6598         1
         1        37        41 985.56268 3704.4885  984.5627         1
         1        38        41 985.36078 3777.8953  984.3608         1
         1        39        41 985.19867 3836.8472  984.1987         1
         1        40        41 985.01324 3904.2800  984.0132         1
         1        41        41 984.84253 3966.3557  983.8425         1
         1        41        42 984.73199 4006.5447  983.7320         1
         1        42        42 984.62292 4046.2048  983.6229         1
         1        43        42 984.42145 4119.4717  983.4214         1
         1        44        42 984.29755 4164.5264  983.2975         1
         1        44        43 984.19720 4201.0132  983.1972         1
         1        45        43 984.02679 4262.9863  983.0268         1
         1        45        44 983.91028 4305.3550  982.9103         1
         1        46        44 983.75830 4360.6191  982.7583         1
         1        46        45 983.64178 4402.9878  982.6418         1
         1        47        45 983.56110 4432.3247  982.5611         1
         1        48        45 983.35303 4507.9868  982.3530         1
         1        49        45 983.16809 4575.2354  982.1681         1
         1        50        45 982.95569 4652.4795  981.9557         1
         1        51        45 982.79004 4712.7144  981.7900         1
         1        52        45 982.59039 4785.3008  981.5904         1
         1        53        45 982.48737 4822.7661  981.4874         1
         1        53        46 982.37329 4864.2500  981.3733         1
         1        54        46 982.20209 4926.5210  981.2021         1
         1        55        46 982.10950 4960.1836  981.1095         1
         1        16        57 986.97913 1020.8691  985.9791         2
         1        17        57 986.92499 1074.9825  985.9250         2
         1        18        57 986.85852 1141.4709  985.8585         2
         1        19        57 986.79309 1206.8817  985.7931         2
         1        20        57 986.72449 1275.4923  985.7245         2
         1        21        57 986.65704 1342.9690  985.6570         2
         1        22        56 986.57715 1422.8685  985.5771         2
         1        22        57 986.61084 1389.1301  985.6108         2
         1        23        56 986.51282 1487.2046  985.5128         2
         1        24        54 986.36328 1636.7297  985.3633         2
         1        24        55 986.41339 1586.6083  985.4134         2
         1        24        56 986.46210 1537.9049  985.4621         2
         1        25        53 986.26428 1735.7123  985.2643         2
         1        25        54 986.32336 1676.6064  985.3234         2
         1        26        51 986.11938 1880.6185  985.1194         2
         1        26        52 986.18152 1818.5027  985.1815         2
         1        26        53 986.22192 1778.1045  985.2219         2
         1        27        50 986.03027 1969.7468  985.0303         2
         1        27        51 986.07190 1928.1277  985.0719         2
         1        28        49 985.93433 2065.6519  984.9343         2
         1        28        50 985.97595 2024.0327  984.9760         2
         1        29        49 985.89410 2105.9009  984.8941         2
         1        30        49 985.81940 2180.5908  984.8194         2
         1        31        48 985.74280 2257.2124  984.7428         2
         1        31        49 985.77765 2222.3264  984.7776         2
         1        32        48 985.67987 2320.1353  984.6799         2
         1        33        47 985.57446 2425.5361  984.5745         2
         1        33        48 985.60638 2393.6030  984.6064         2
         1        34        46 985.48065 2519.3748  984.4807         2
         1        34        47 985.53009 2469.8962  984.5301         2
         1        35        45 985.38678 2613.2136  984.3868         2
         1        35        46 985.43628 2563.7349  984.4363         2
         1        36        44 985.29425 2705.7400  984.2943         2
         1        36        45 985.34979 2650.2083  984.3498         2
         1        37        44 985.24908 2750.9399  984.2491         2
         1        38        43 985.15662 2843.3962  984.1566         2
         1        38        44 985.19293 2807.0630  984.1929         2
         1        39        42 985.05078 2949.2053  984.0508         2
         1        39        43 985.09943 2900.5820  984.0994         2
         1        40        42 985.04858 2951.4382  984.0486         2
         1         6        33 993.85791 1047.3717  992.8579         3
         1         7        32 993.54266 1152.4354  992.5427         3
         1         7        33 993.68756 1104.1417  992.6876         3
         1         8        31 993.20490 1265.0255  992.2049         3
         1         8        32 993.38220 1205.9336  992.3822         3
         1         9        30 992.88220 1372.5947  991.8822         3
         1         9        31 993.04358 1318.8101  992.0436         3
         1        10        29 992.57300 1475.6598  991.5730         3
         1        10        30 992.70526 1431.5723  991.7053         3
         1        11        28 992.23193 1589.3524  991.2319         3
         1        11        29 992.36981 1543.3916  991.3698         3
         1        12        28 992.05060 1649.8033  991.0506         3
         1        13        27 991.74976 1750.0817  990.7498         3
         1        13        28 991.89825 1700.5758  990.8983         3
         1        14        26 991.39789 1867.3676  990.3979         3
         1        14        27 991.57153 1809.4888  990.5715         3
         1        15        25 991.21533 1928.2183  990.2153         3
         1        15        26 991.26379 1912.0724  990.2638         3
